*SPEF "IEEE 1481-1998"
*DESIGN "serial_to_parallel"
*DATE "Tue Jun 10 21:07:06 2025"
*VENDOR "Cadence Design Systems, Inc."
*PROGRAM "Innovus"
*VERSION "23.31-s109_1"
*DESIGN_FLOW "PIN_CAP NONE" "NAME_SCOPE LOCAL"
*DIVIDER /
*DELIMITER :
*BUS_DELIMITER []
*T_UNIT 1 NS
*C_UNIT 1 PF
*R_UNIT 1 OHM
*L_UNIT 1 HENRY

// MMMC spef file for corner 'RC_WORST'

*NAME_MAP

*1 FE_OFN7_shift_reg_2
*2 FE_OFN6_shift_reg_1
*3 FE_OFN5_shift_reg_6
*4 FE_OFN4_shift_reg_4
*5 FE_OFN3_shift_reg_0
*6 FE_OFN2_shift_reg_3
*7 FE_OFN1_shift_reg_5
*8 FE_OFN0_p_o_7
*9 clk
*10 rst_n
*11 serial_in
*12 p_o[7]
*13 p_o[6]
*14 p_o[5]
*15 p_o[4]
*16 p_o[3]
*17 p_o[2]
*18 p_o[1]
*19 p_o[0]
*20 scan_en
*21 scan_in
*22 scan_out
*23 shift_reg[6]
*24 shift_reg[5]
*25 shift_reg[4]
*26 shift_reg[3]
*27 shift_reg[2]
*28 shift_reg[1]
*29 shift_reg[0]
*30 n_0
*31 n_1
*32 n_2
*33 n_3
*34 n_4
*35 n_5
*36 n_6
*37 FE_OFC38_p_o_7
*38 FE_OFC34_p_o_3
*39 FE_OFC29_shift_reg_4
*40 FE_OFC28_shift_reg_4
*41 FE_OFC27_shift_reg_0
*42 FE_OFC26_shift_reg_0
*43 FE_OFC25_shift_reg_1
*44 FE_OFC24_shift_reg_1
*45 FE_OFC23_shift_reg_6
*46 FE_OFC22_shift_reg_6
*47 FE_OFC21_shift_reg_5
*48 FE_OFC20_shift_reg_5
*49 FE_OFC18_shift_reg_3
*50 FE_OFC17_shift_reg_2
*51 FE_OFC16_shift_reg_2
*52 shift_reg_reg\[7\]
*53 shift_reg_reg\[6\]
*54 shift_reg_reg\[5\]
*55 shift_reg_reg\[4\]
*56 shift_reg_reg\[3\]
*57 shift_reg_reg\[2\]
*58 shift_reg_reg\[1\]
*59 shift_reg_reg\[0\]


*PORTS

*9 I *C 6.4 50.82
*10 I *C 26.4 0
*11 I *C 0 41.58
*12 O *C 46.72 0
*13 O *C 52.8 7.71
*14 O *C 52.8 17.19
*15 O *C 52.8 25.83
*16 O *C 52.8 34.47
*17 O *C 52.8 43.95
*18 O *C 46.4 50.82
*19 O *C 26.4 50.82
*20 I *C 7.04 0
*21 I *C 0 8.82
*22 O *C 0 25.2


*D_NET *1 0.00346263

*CONN
*I *56:D I *C 10.08 28.98 *L 0.00198 *D sg13g2_sdfbbp_1
*I *51:Y O *C 28.32 28.14 *L 0 *D sg13g2_inv_4
*I *50:A I *C 33.12 33.18 *L 0.0172 *D sg13g2_buf_16

*CAP
1 *56:D 9.16904e-05
2 *51:Y 8.06613e-05
3 *50:A 5.07823e-05
4 *1:3 0.000141542
5 *1:4 0.00052567
6 *1:5 0.000500748
7 *1:6 0.000401574
8 *1:7 0.000172263
9 *1:8 0.000401574
10 *1:9 0.00016948
11 *1:10 0.000240508
12 *1:11 0.000222821
13 *1:12 0.000240508
14 *1:13 0.000222821

*RES
1 *1:13 *50:A 20
2 *1:11 *1:13 1.48315
3 *1:12 *1:11 20
4 *1:10 *1:12 1.73035
5 *1:9 *1:10 20
6 *1:9 *51:Y 20
7 *1:7 *1:9 1.23596
8 *1:7 *1:8 0.21637
9 *1:6 *1:8 3.46069
10 *1:5 *1:6 0.21637
11 *1:4 *1:5 3.95508
12 *1:3 *1:4 0.432739
13 *56:D *1:3 0.741577
*END

*D_NET *2 0.00554722

*CONN
*I *57:D I *C 14.4 33.18 *L 0.00198 *D sg13g2_sdfbbp_1
*I *44:Y O *C 29.28 26.46 *L 0 *D sg13g2_inv_4
*I *43:A I *C 41.76 40.74 *L 0.0172 *D sg13g2_buf_16

*CAP
1 *57:D 6.37295e-05
2 *44:Y 5.07878e-05
3 *43:A 5.07878e-05
4 *2:4 9.5093e-05
5 *2:5 0.000683559
6 *2:6 8.58588e-05
7 *2:7 9.5093e-05
8 *2:8 8.14516e-05
9 *2:9 0.000365425
10 *2:10 0.000365425
11 *2:11 0.00152818
12 *2:12 8.14516e-05
13 *2:13 5.06479e-05
14 *2:14 0.000858378
15 *2:15 0.000526719
16 *2:16 4.43052e-05
17 *2:17 0.000520376

*RES
1 *57:D *2:6 0.494385
2 *2:12 *44:Y 20
3 *2:7 *2:6 20
4 *2:8 *2:12 0.494385
5 *2:4 *2:7 0.648804
6 *2:9 *2:8 20
7 *2:5 *2:4 20
8 *2:9 *2:10 2.81189
9 *2:5 *2:11 6.18011
10 *2:11 *2:10 20
11 *2:11 *2:14 7.16888
12 *2:13 *2:14 20
13 *2:13 *2:15 0.247192
14 *2:15 *2:17 4.54224
15 *2:16 *43:A 20
16 *2:16 *2:17 20
17 *2:3 *2:16 0.0515747
*END

*D_NET *3 0.00338238

*CONN
*I *52:D I *C 14.88 13.86 *L 0.00198 *D sg13g2_sdfbbp_1
*I *46:Y O *C 28.32 20.58 *L 0 *D sg13g2_inv_2
*I *45:A I *C 30.72 10.5 *L 0.0172 *D sg13g2_buf_16

*CAP
1 *52:D 0.000149564
2 *46:Y 5.0786e-05
3 *45:A 8.05554e-05
4 *3:4 0.00081019
5 *3:5 0.000123689
6 *3:6 7.82436e-05
7 *3:7 0.000732119
8 *3:8 6.30869e-05
9 *3:9 0.000624935
10 *3:10 4.42956e-05
11 *3:11 0.000624935

*RES
1 *3:5 *45:A 1.2149
2 *3:5 *3:6 0.708618
3 *3:4 *52:D 1.29791
4 *3:7 *3:6 20
5 *3:4 *3:7 6.42731
6 *3:7 *3:8 0.494385
7 *3:9 *3:8 20
8 *3:9 *3:11 4.75861
9 *3:10 *3:11 20
10 *3:10 *46:Y 20
11 *3:3 *3:10 0.300598
*END

*D_NET *4 0.0042008

*CONN
*I *54:D I *C 10.08 21.42 *L 0.00198 *D sg13g2_sdfbbp_1
*I *40:Y O *C 25.92 26.46 *L 0 *D sg13g2_inv_2
*I *39:A I *C 40.32 25.62 *L 0.0172 *D sg13g2_buf_16

*CAP
1 *54:D 8.39426e-05
2 *40:Y 5.07763e-05
3 *39:A 5.07763e-05
4 *4:3 0.000133794
5 *4:4 0.000527401
6 *4:5 0.000502484
7 *4:6 0.000386937
8 *4:7 0.000461714
9 *4:8 0.000128184
10 *4:9 0.000159509
11 *4:10 0.000125409
12 *4:11 0.000133132
13 *4:12 0.000133132
14 *4:13 8.20925e-05
15 *4:14 0.00010701
16 *4:15 0.00055618
17 *4:16 4.70761e-05
18 *4:17 0.000531263

*RES
1 *4:16 *39:A 20
2 *4:16 *4:17 0.21637
3 *4:15 *4:17 4.44946
4 *4:14 *4:15 0.432739
5 *4:13 *4:14 0.494385
6 *4:12 *4:13 0.21637
7 *4:11 *4:12 1.23596
8 *4:10 *4:11 0.21637
9 *4:9 *4:10 1.23596
10 *4:9 *40:Y 20
11 *4:8 *4:9 0.247192
12 *4:7 *4:8 0.865173
13 *4:6 *4:7 3.2135
14 *4:5 *4:6 0.21637
15 *4:4 *4:5 3.95508
16 *4:3 *4:4 0.432739
17 *54:D *4:3 0.741577
*END

*D_NET *5 0.00229923

*CONN
*I *58:D I *C 26.88 36.54 *L 0.00198 *D sg13g2_sdfbbp_1
*I *42:Y O *C 18.72 41.58 *L 0 *D sg13g2_inv_2
*I *41:A I *C 29.76 40.74 *L 0.0172 *D sg13g2_buf_16

*CAP
1 *58:D 4.43014e-05
2 *42:Y 5.07806e-05
3 *41:A 5.07806e-05
4 *5:3 0.000134068
5 *5:4 0.000136851
6 *5:5 0.00030184
7 *5:6 0.00010771
8 *5:7 0.00030184
9 *5:8 0.00032865
10 *5:9 0.000277538
11 *5:10 0.00032865
12 *5:11 4.70797e-05
13 *5:12 0.000189141

*RES
1 *5:8 *58:D 20
2 *5:11 *41:A 20
3 *5:8 *5:10 2.37915
4 *5:11 *5:12 0.21637
5 *5:9 *5:10 20
6 *5:9 *5:12 1.48315
7 *5:6 *5:9 0.741577
8 *5:6 *5:7 0.21637
9 *5:5 *5:7 2.47192
10 *5:4 *5:5 0.21637
11 *5:3 *5:4 0.98877
12 *42:Y *5:3 20
*END

*D_NET *6 0.0043779

*CONN
*I *55:D I *C 10.08 25.62 *L 0.00198 *D sg13g2_sdfbbp_1
*I *49:Y O *C 25.92 28.14 *L 0 *D sg13g2_inv_2
*I *38:A I *C 41.76 28.98 *L 0.0172 *D sg13g2_buf_16

*CAP
1 *55:D 0.000387555
2 *49:Y 5.07827e-05
3 *38:A 5.07827e-05
4 *6:3 0.000437412
5 *6:4 0.000602583
6 *6:5 0.00065243
7 *6:6 0.000128575
8 *6:7 0.000540949
9 *6:8 0.000506463
10 *6:9 0.000486652
11 *6:10 0.000486652
12 *6:11 4.70793e-05

*RES
1 *6:11 *38:A 20
2 *6:10 *6:11 0.21637
3 *6:9 *6:10 3.95508
4 *6:8 *6:9 0.21637
5 *6:7 *6:8 4.20227
6 *6:7 *49:Y 20
7 *6:6 *6:7 0.247192
8 *6:5 *6:6 0.865173
9 *6:4 *6:5 4.69666
10 *6:3 *6:4 0.432739
11 *55:D *6:3 3.2135
*END

*D_NET *7 0.0037779

*CONN
*I *53:D I *C 14.88 18.06 *L 0.00198 *D sg13g2_sdfbbp_1
*I *48:Y O *C 25.92 20.58 *L 0 *D sg13g2_inv_2
*I *47:A I *C 41.28 18.06 *L 0.0172 *D sg13g2_buf_16

*CAP
1 *53:D 6.07523e-05
2 *48:Y 5.07829e-05
3 *47:A 5.07829e-05
4 *7:3 0.000110599
5 *7:4 0.000609156
6 *7:5 0.000609156
7 *7:6 0.00062581
8 *7:7 8.25914e-05
9 *7:8 5.48891e-05
10 *7:9 0.000437709
11 *7:10 0.000575963
12 *7:11 7.20013e-05
13 *7:12 0.000437709

*RES
1 *7:11 *47:A 20
2 *7:11 *7:12 0.432739
3 *7:9 *7:12 3.46069
4 *7:8 *48:Y 20
5 *7:9 *7:10 0.432739
6 *7:7 *7:8 0.247192
7 *7:6 *7:10 4.69666
8 *7:6 *7:7 0.432739
9 *7:5 *7:6 0.432739
10 *7:4 *7:5 4.94415
11 *7:3 *7:4 0.432739
12 *53:D *7:3 0.494385
*END

*D_NET *8 0.00158736

*CONN
*I *52:Q O *C 29.28 13.02 *L 0 *D sg13g2_sdfbbp_1
*I *37:A I *C 41.76 13.86 *L 0.0172 *D sg13g2_buf_16

*CAP
1 *52:Q 5.07811e-05
2 *37:A 5.07811e-05
3 *8:2 0.00023573
4 *8:3 0.00048224
5 *8:4 0.000238511
6 *8:5 0.00048224
7 *8:6 4.70798e-05

*RES
1 *8:6 *37:A 20
2 *8:5 *8:6 0.21637
3 *8:3 *8:5 4.44946
4 *8:3 *8:4 0.21637
5 *8:2 *8:4 1.97754
6 *52:Q *8:2 20
*END

*D_NET *9 0.00971668

*CONN
*P *9 I *C 6.4 50.82 *L 0
*I *59:CLK I *C 12.48 36.12 *L 0.00303 *D sg13g2_sdfbbp_1
*I *58:CLK I *C 29.28 36.12 *L 0.00303 *D sg13g2_sdfbbp_1
*I *57:CLK I *C 16.8 33.6 *L 0.00303 *D sg13g2_sdfbbp_1
*I *56:CLK I *C 12.48 28.56 *L 0.00303 *D sg13g2_sdfbbp_1
*I *55:CLK I *C 12.48 26.04 *L 0.00303 *D sg13g2_sdfbbp_1
*I *54:CLK I *C 12.48 21 *L 0.00303 *D sg13g2_sdfbbp_1
*I *53:CLK I *C 17.28 18.48 *L 0.00303 *D sg13g2_sdfbbp_1
*I *52:CLK I *C 17.28 13.44 *L 0.00303 *D sg13g2_sdfbbp_1

*CAP
1 *9 1.77966e-05
2 *59:CLK 5.07715e-05
3 *58:CLK 5.07715e-05
4 *57:CLK 5.07715e-05
5 *56:CLK 5.07715e-05
6 *55:CLK 5.07715e-05
7 *54:CLK 5.07715e-05
8 *53:CLK 5.07715e-05
9 *52:CLK 5.07715e-05
10 *9:18 3.9957e-05
11 *9:19 4.43018e-05
12 *9:20 0.000342537
13 *9:21 2.96926e-05
14 *9:22 3.39615e-05
15 *9:23 3.07551e-05
16 *9:24 3.2254e-05
17 *9:25 5.3959e-05
18 *9:26 0.000257216
19 *9:27 0.000270478
20 *9:28 0.000450512
21 *9:29 0.000270478
22 *9:30 2.96926e-05
23 *9:31 0.000506121
24 *9:32 3.39615e-05
25 *9:33 0.000466582
26 *9:34 3.07551e-05
27 *9:35 0.000582886
28 *9:36 0.000281463
29 *9:37 0.00124339
30 *9:38 0.000827997
31 *9:39 0.000342537
32 *9:40 3.93688e-05
33 *9:41 0.000146907
34 *9:42 0.0010658
35 *9:43 0.000146907
36 *9:44 3.93688e-05
37 *9:45 3.69782e-05
38 *9:46 4.43018e-05
39 *9:47 0.000270478
40 *9:48 3.93688e-05
41 *9:49 4.43018e-05
42 *9:50 0.000270478
43 *9:51 3.69782e-05
44 *9:52 3.93688e-05
45 *9:53 0.000816594
46 *9:54 5.3959e-05

*RES
1 *9:51 *52:CLK 20
2 *9:16 *9:45 0.180054
3 *9:45 *9:51 0.123596
4 *9:52 *53:CLK 20
5 *9:46 *9:45 20
6 *9:17 *9:46 0.300598
7 *9:14 *9:48 0.180054
8 *9:48 *9:52 0.123596
9 *9:47 *9:46 20
10 *9:49 *9:48 20
11 *9:15 *9:49 0.300598
12 *9:44 *57:CLK 20
13 *9:27 *9:47 2.22473
14 *9:50 *9:49 20
15 *9:10 *9:40 0.180054
16 *9:40 *9:44 0.123596
17 *9:21 *54:CLK 20
18 *9:13 *9:21 0.239868
19 *9:26 *9:27 20
20 *9:29 *9:50 2.22473
21 *9:41 *9:40 20
22 *9:54 *58:CLK 20
23 *9:22 *55:CLK 20
24 *9:12 *9:22 0.239868
25 *9:21 *9:30 0.0619507
26 *9:26 *9:28 2.37915
27 *9:28 *9:29 20
28 *9:25 *59:CLK 20
29 *9:41 *9:43 1.08154
30 *9:53 *9:54 0.21637
31 *9:23 *56:CLK 20
32 *9:11 *9:23 0.239868
33 *9:22 *9:32 0.0619507
34 *9:31 *9:30 20
35 *9:28 *9:31 1.51398
36 *9:24 *9:25 0.21637
37 *9:42 *9:43 20
38 *9:42 *9:53 6.5509
39 *9:23 *9:34 0.0619507
40 *9:33 *9:32 20
41 *9:31 *9:33 2.59552
42 *9:24 *9:36 0.0619507
43 *9:36 *9:42 1.97754
44 *9:35 *9:34 20
45 *9:33 *9:35 1.29791
46 *9:37 *9:36 20
47 *9:35 *9:37 3.67706
48 *9:37 *9:38 7.35413
49 *9:39 *9:38 20
50 *9:20 *9:39 2.96631
51 *9 *9:18 0.164795
52 *9:19 *9:20 20
53 *9:19 *9:18 20
54 *9:9 *9:19 0.300598
*END

*D_NET *10 0.00913366

*CONN
*P *10 I *C 26.4 0 *L 0
*I *59:RESET_B I *C 22.08 36.54 *L 0.00172 *D sg13g2_sdfbbp_1
*I *58:RESET_B I *C 38.88 36.54 *L 0.00172 *D sg13g2_sdfbbp_1
*I *57:RESET_B I *C 26.4 33.18 *L 0.00172 *D sg13g2_sdfbbp_1
*I *56:RESET_B I *C 22.08 28.98 *L 0.00172 *D sg13g2_sdfbbp_1
*I *55:RESET_B I *C 22.08 25.62 *L 0.00172 *D sg13g2_sdfbbp_1
*I *54:RESET_B I *C 22.08 21.42 *L 0.00172 *D sg13g2_sdfbbp_1
*I *53:RESET_B I *C 26.88 18.06 *L 0.00172 *D sg13g2_sdfbbp_1
*I *52:RESET_B I *C 26.88 13.86 *L 0.00172 *D sg13g2_sdfbbp_1

*CAP
1 *10 0.000180213
2 *59:RESET_B 5.07774e-05
3 *58:RESET_B 5.07774e-05
4 *57:RESET_B 5.07774e-05
5 *56:RESET_B 5.07774e-05
6 *55:RESET_B 5.07774e-05
7 *54:RESET_B 5.07774e-05
8 *53:RESET_B 5.07774e-05
9 *52:RESET_B 5.07774e-05
10 *10:16 0.000105268
11 *10:17 4.43048e-05
12 *10:18 0.000312442
13 *10:19 4.43048e-05
14 *10:20 0.00031087
15 *10:21 7.52128e-05
16 *10:22 7.67682e-05
17 *10:23 4.43048e-05
18 *10:24 0.000151262
19 *10:25 0.000100919
20 *10:26 6.6014e-05
21 *10:27 0.000125054
22 *10:28 0.000125054
23 *10:29 0.000160093
24 *10:30 0.00035295
25 *10:31 0.000256396
26 *10:32 5.91567e-05
27 *10:33 0.000212944
28 *10:34 0.000202374
29 *10:35 0.000944383
30 *10:36 0.000245207
31 *10:37 0.00109608
32 *10:38 0.000200266
33 *10:39 4.43048e-05
34 *10:40 4.43048e-05
35 *10:41 0.00102092
36 *10:42 4.43048e-05
37 *10:43 0.0002336
38 *10:44 0.000279778
39 *10:45 0.0002336
40 *10:46 7.88756e-05
41 *10:47 0.000216674
42 *10:48 0.000778286
43 *10:49 4.43048e-05
44 *10:50 0.000216674

*RES
1 *10:42 *52:RESET_B 20
2 *10:15 *10:42 0.0515747
3 *10:43 *10:42 20
4 *10:43 *10:45 1.73035
5 *10:46 *53:RESET_B 20
6 *10:44 *10:45 20
7 *10:44 *10:46 0.432739
8 *10:34 *10 1.6687
9 *10:36 *10:44 1.97754
10 *10:35 *10:34 20
11 *10:37 *10:36 20
12 *10:35 *10:37 8.43567
13 *10:37 *10:38 1.73035
14 *10:17 *54:RESET_B 20
15 *10:14 *10:17 0.0515747
16 *10:16 *10:38 0.494385
17 *10:19 *55:RESET_B 20
18 *10:13 *10:19 0.0515747
19 *10:18 *10:17 20
20 *10:16 *10:18 0.432739
21 *10:20 *10:19 20
22 *10:18 *10:20 2.16309
23 *10:20 *10:21 0.432739
24 *10:21 *10:27 0.247192
25 *10:27 *10:28 0.865173
26 *10:23 *56:RESET_B 20
27 *10:12 *10:23 0.0515747
28 *10:22 *10:28 0.247192
29 *10:24 *10:23 20
30 *10:22 *10:24 0.432739
31 *10:26 *59:RESET_B 20
32 *10:24 *10:25 0.648804
33 *10:26 *10:32 0.247192
34 *10:25 *10:29 0.247192
35 *10:33 *10:32 20
36 *10:39 *57:RESET_B 20
37 *10:10 *10:39 0.0515747
38 *10:29 *10:30 1.51398
39 *10:30 *10:33 1.73035
40 *10:40 *10:39 20
41 *10:11 *10:40 0.300598
42 *10:31 *10:30 20
43 *10:41 *10:40 20
44 *10:31 *10:41 1.97754
45 *10:41 *10:48 6.42731
46 *10:47 *10:48 20
47 *10:47 *10:50 1.73035
48 *10:49 *58:RESET_B 20
49 *10:49 *10:50 20
50 *10:9 *10:49 0.0515747
*END

*D_NET *11 0.00191113

*CONN
*P *11 I *C 0 41.58 *L 0
*I *59:D I *C 10.08 36.54 *L 0.00198 *D sg13g2_sdfbbp_1

*CAP
1 *11 5.83703e-05
2 *59:D 4.43025e-05
3 *11:2 0.00036197
4 *11:3 0.000108218
5 *11:4 0.00036197
6 *11:5 0.000102479
7 *11:6 0.000230482
8 *11:7 7.47801e-05
9 *11:8 0.000167168
10 *11:9 0.000169041
11 *11:10 0.000232349

*RES
1 *11:9 *59:D 20
2 *11:9 *11:10 1.29791
3 *11:6 *11:10 0.741577
4 *11:6 *11:8 1.29791
5 *11:7 *11:8 20
6 *11:5 *11:7 0.741577
7 *11:4 *11:5 0.432739
8 *11:2 *11:4 2.71912
9 *11:2 *11:3 0.432739
10 *11 *11:3 0.731201
*END

*D_NET *12 0.00232258

*CONN
*I *37:X O *C 33.6 14.7 *L 0 *D sg13g2_buf_16
*P *12 O *C 46.72 0 *L 0.5

*CAP
1 *37:X 0.000255299
2 *12 6.22951e-05
3 *12:2 0.00070595
4 *12:3 0.000277446
5 *12:4 0.000699605
6 *12:5 8.44533e-05
7 *12:6 0.000115585
8 *12:7 0.000121929

*RES
1 *12:5 *12 0.576782
2 *12:6 *12:5 20
3 *12:6 *12:7 0.865173
4 *12:2 *12:7 0.247192
5 *12:2 *12:4 6.27258
6 *12:3 *12:4 20
7 *37:X *12:3 2.22473
*END

*D_NET *13 0.001712

*CONN
*P *13 O *C 52.8 7.71 *L 0.5
*I *45:X O *C 38.88 9.66 *L 0 *D sg13g2_buf_16

*CAP
1 *13 0.000740273
2 *45:X 0.000115727
3 *13:2 0.000856

*RES
1 *13:2 *13 6.91130018
2 *13:2 *45:X 1.00428
*END

*D_NET *14 0.00137812

*CONN
*P *14 O *C 52.8 17.19 *L 0.5
*I *47:X O *C 33.12 17.22 *L 0 *D sg13g2_buf_16

*CAP
1 *14 0.00068906
2 *47:X 0.00068906

*RES
1 *47:X *14 6.1697
*END

*D_NET *15 0.00159342

*CONN
*P *15 O *C 52.8 25.83 *L 0.5
*I *39:X O *C 32.16 24.78 *L 0 *D sg13g2_buf_16

*CAP
1 *15 6.23169e-05
2 *39:X 0.000734393
3 *15:2 0.00079671

*RES
1 *15:2 *15 0.540767
2 *39:X *15:2 6.66410017
*END

*D_NET *16 0.00195129

*CONN
*I *38:X O *C 33.6 29.82 *L 0 *D sg13g2_buf_16
*P *16 O *C 52.8 34.47 *L 0.5

*CAP
1 *38:X 0.000634815
2 *16 4.42992e-05
3 *16:2 0.00065697
4 *16:3 0.000138953
5 *16:4 0.000145288
6 *16:5 0.000168646
7 *16:6 0.00016231

*RES
1 *16:6 *16 20
2 *16:5 *16:6 1.29791
3 *16:4 *16:5 0.247192
4 *16:3 *16:4 1.08154
5 *16:2 *16:3 20
6 *38:X *16:2 5.68573
*END

*D_NET *17 0.00268466

*CONN
*P *17 O *C 52.8 43.95 *L 0.5
*I *50:X O *C 41.28 32.34 *L 0 *D sg13g2_buf_16

*CAP
1 *17 0.000250823
2 *50:X 0.000395633
3 *17:2 0.00067373
4 *17:3 0.000417777
5 *17:4 0.00067373
6 *17:5 0.000272967

*RES
1 *17:5 *17 2.21436
2 *17:4 *17:5 20
3 *17:2 *17:4 9.92249
4 *17:3 *17:2 20
5 *50:X *17:3 3.46069
*END

*D_NET *18 0.0018287

*CONN
*P *18 O *C 46.4 50.82 *L 0.5
*I *43:X O *C 33.6 39.9 *L 0 *D sg13g2_buf_16

*CAP
1 *18 4.44962e-05
2 *43:X 0.000269922
3 *18:2 0.00057778
4 *18:3 0.000292068
5 *18:4 0.00057778
6 *18:5 6.66517e-05

*RES
1 *18:5 *18 0.411987
2 *18:4 *18:5 20
3 *18:2 *18:4 8.50494
4 *18:3 *18:2 20
5 *43:X *18:3 2.47192
*END

*D_NET *19 0.0013533

*CONN
*P *19 O *C 26.4 50.82 *L 0.5
*I *41:X O *C 21.6 39.9 *L 0 *D sg13g2_buf_16

*CAP
1 *19 4.42988e-05
2 *41:X 4.42988e-05
3 *19:2 0.00063235
4 *19:3 0.00063235

*RES
1 *19:3 *19 20
2 *19:2 *19:3 5.19135
3 *41:X *19:2 20
*END

*D_NET *20 0.0105125

*CONN
*P *20 I *C 7.04 0 *L 0
*I *59:SCE I *C 9.402 36.882 *L 0.00382 *D sg13g2_sdfbbp_1
*I *58:SCE I *C 26.202 36.882 *L 0.00382 *D sg13g2_sdfbbp_1
*I *57:SCE I *C 13.722 32.838 *L 0.00382 *D sg13g2_sdfbbp_1
*I *56:SCE I *C 9.402 29.322 *L 0.00382 *D sg13g2_sdfbbp_1
*I *55:SCE I *C 9.402 25.278 *L 0.00382 *D sg13g2_sdfbbp_1
*I *54:SCE I *C 9.402 21.762 *L 0.00382 *D sg13g2_sdfbbp_1
*I *53:SCE I *C 14.202 17.718 *L 0.00382 *D sg13g2_sdfbbp_1
*I *52:SCE I *C 14.202 14.202 *L 0.00382 *D sg13g2_sdfbbp_1

*CAP
1 *20 6.23071e-05
2 *59:SCE 5.07832e-05
3 *58:SCE 5.07832e-05
4 *57:SCE 5.07832e-05
5 *56:SCE 5.07832e-05
6 *55:SCE 5.07832e-05
7 *54:SCE 5.07832e-05
8 *53:SCE 5.07832e-05
9 *52:SCE 5.07832e-05
10 *20:9 0.000231192
11 *20:10 0.000231192
12 *20:11 0.000227118
13 *20:12 0.000227118
14 *20:13 0.000406777
15 *20:14 0.000406777
16 *20:15 0.000105368
17 *20:16 9.44237e-05
18 *20:17 0.000261144
19 *20:18 0.000182216
20 *20:19 0.000105368
21 *20:20 0.000110124
22 *20:21 0.000286766
23 *20:22 8.90539e-05
24 *20:23 0.000491723
25 *20:24 0.000110124
26 *20:25 0.000517345
27 *20:26 0.000378854
28 *20:27 0.000496189
29 *20:28 9.82593e-05
30 *20:29 0.000282828
31 *20:30 8.44512e-05
32 *20:31 0.000138951
33 *20:32 0.000145292
34 *20:33 0.000263326
35 *20:34 0.000110124
36 *20:35 9.18326e-05
37 *20:36 4.7084e-05
38 *20:37 0.000110124
39 *20:38 4.7084e-05
40 *20:39 0.00111718
41 *20:40 0.000329349
42 *20:41 0.000378854
43 *20:42 4.7084e-05
44 *20:43 0.000184143
45 *20:44 3.6566e-05
46 *20:45 4.7084e-05
47 *20:46 4.30439e-05
48 *20:47 0.000180307
49 *20:48 3.37873e-05
50 *20:49 0.000180307
51 *20:50 4.7084e-05
52 *20:51 0.00104106

*RES
1 *20:50 *58:SCE 20
2 *20:38 *59:SCE 20
3 *20:50 *20:51 0.21637
4 *20:38 *20:39 0.21637
5 *20:39 *20:51 8.65204
6 *20:45 *53:SCE 20
7 *20:41 *57:SCE 20
8 *20:28 *20:39 0.826721
9 *20:44 *20:45 0.21637
10 *20:36 *55:SCE 20
11 *20:37 *56:SCE 20
12 *20:26 *20:41 3.05145
13 *20:29 *20:28 20
14 *20:44 *20:48 0.0619507
15 *20:35 *20:36 0.21637
16 *20:24 *20:37 0.826721
17 *20:27 *20:26 20
18 *20:27 *20:29 2.37915
19 *20:49 *20:48 20
20 *20:34 *54:SCE 20
21 *20:22 *20:35 0.826721
22 *20:25 *20:24 20
23 *20:25 *20:27 1.73035
24 *20:47 *20:49 1.29791
25 *20:20 *20:34 0.826721
26 *20:23 *20:22 20
27 *20:23 *20:25 2.37915
28 *20:42 *52:SCE 20
29 *20:46 *20:47 20
30 *20:21 *20:20 20
31 *20:21 *20:23 1.51398
32 *20:42 *20:43 0.21637
33 *20:43 *20:46 0.162354
34 *20:19 *20:21 0.648804
35 *20:40 *20:43 1.07391
36 *20:12 *20:19 0.247192
37 *20:33 *20:40 1.48315
38 *20:11 *20:12 1.73035
39 *20:16 *20:33 0.741577
40 *20:11 *20:18 0.247192
41 *20:17 *20:16 20
42 *20:17 *20:18 1.29791
43 *20:15 *20:17 0.648804
44 *20:10 *20:15 0.247192
45 *20:9 *20:10 1.94672
46 *20:9 *20:14 0.247192
47 *20:13 *20:14 3.46069
48 *20:13 *20:32 0.247192
49 *20:31 *20:32 1.08154
50 *20:30 *20:31 20
51 *20 *20:30 0.576782
*END

*D_NET *21 0.00447743

*CONN
*P *21 I *C 0 8.82 *L 0
*I *59:SCD I *C 8.835 36.7 *L 0.00198 *D sg13g2_sdfbbp_1

*CAP
1 *21 0.000227824
2 *59:SCD 6.70837e-06
3 *21:3 0.000252769
4 *21:4 0.000211759
5 *21:5 0.00020898
6 *21:6 0.000229344
7 *21:7 0.000235683
8 *21:8 8.95317e-05
9 *21:9 4.18133e-05
10 *21:10 4.431e-05
11 *21:11 8.31924e-05
12 *21:12 0.00142276
13 *21:13 0.00142276

*RES
1 *21 *21:3 2.21436
2 *21:3 *21:4 0.21637
3 *21:4 *21:5 1.97754
4 *21:6 *21:5 20
5 *21:6 *21:7 1.73035
6 *21:7 *21:12 0.247192
7 *21:12 *21:13 11.6803
8 *21:8 *21:13 0.247192
9 *21:9 *59:SCD 0.101318
10 *21:8 *21:11 0.648804
11 *21:10 *21:9 20
12 *21:10 *21:11 20
13 *21:2 *21:10 0.300598
*END

*D_NET *22 0.00436214

*CONN
*P *22 O *C 0 25.2 *L 0
*I *52:Q_N O *C 27.84 13.02 *L 0 *D sg13g2_sdfbbp_1

*CAP
1 *22 8.37976e-05
2 *52:Q_N 5.07769e-05
3 *22:2 0.000440557
4 *22:3 0.00036241
5 *22:4 0.000440557
6 *22:5 0.000105946
7 *22:6 0.000365191
8 *22:7 0.000436568
9 *22:8 0.0008247
10 *22:9 0.000436568
11 *22:10 0.000815048

*RES
1 *22:10 *52:Q_N 20
2 *22:8 *22:10 6.6745
3 *22:8 *22:9 0.21637
4 *22:7 *22:9 3.46069
5 *22:6 *22:7 0.21637
6 *22:3 *22:6 2.96631
7 *22:2 *22:3 20
8 *22:2 *22:4 8.50494
9 *22:5 *22:4 20
10 *22 *22:5 0.978394
*END

*D_NET *23 0.00060956

*CONN
*I *53:Q_N O *C 27.84 18.9 *L 0 *D sg13g2_sdfbbp_1
*I *46:A I *C 27.84 21.42 *L 0.00563 *D sg13g2_inv_2

*CAP
1 *53:Q_N 5.07811e-05
2 *46:A 5.07811e-05
3 *23:4 4.43015e-05
4 *23:5 0.0002097
5 *23:6 4.43015e-05
6 *23:7 0.0002097

*RES
1 *23:3 *23:4 0.300598
2 *23:4 *53:Q_N 20
3 *23:5 *23:4 20
4 *23:5 *23:7 1.29791
5 *23:6 *46:A 20
6 *23:6 *23:7 20
7 *23:2 *23:6 0.300598
*END

*D_NET *24 0.00046954

*CONN
*I *54:Q_N O *C 23.04 20.58 *L 0 *D sg13g2_sdfbbp_1
*I *48:A I *C 25.44 21.42 *L 0.00563 *D sg13g2_inv_2

*CAP
1 *54:Q_N 5.07794e-05
2 *48:A 5.07794e-05
3 *24:2 0.00018399
4 *24:3 0.00018399

*RES
1 *24:3 *48:A 20
2 *24:2 *24:3 1.23596
3 *54:Q_N *24:2 20
*END

*D_NET *25 0.00047976

*CONN
*I *55:Q_N O *C 23.04 26.46 *L 0 *D sg13g2_sdfbbp_1
*I *40:A I *C 25.44 25.62 *L 0.00563 *D sg13g2_inv_2

*CAP
1 *55:Q_N 5.07787e-05
2 *40:A 5.07787e-05
3 *25:2 0.0001891
4 *25:3 0.0001891

*RES
1 *25:3 *40:A 20
2 *25:2 *25:3 1.23596
3 *55:Q_N *25:2 20
*END

*D_NET *26 0.00046954

*CONN
*I *56:Q_N O *C 23.04 28.14 *L 0 *D sg13g2_sdfbbp_1
*I *49:A I *C 25.44 28.98 *L 0.00563 *D sg13g2_inv_2

*CAP
1 *56:Q_N 5.07794e-05
2 *49:A 5.07794e-05
3 *26:2 0.00018399
4 *26:3 0.00018399

*RES
1 *26:3 *49:A 20
2 *26:2 *26:3 1.23596
3 *56:Q_N *26:2 20
*END

*D_NET *27 0.0003825

*CONN
*I *57:Q_N O *C 27.36 34.02 *L 0 *D sg13g2_sdfbbp_1
*I *51:A I *C 27.84 28.98 *L 0.0112 *D sg13g2_inv_4

*CAP
1 *51:A 2.68499e-05
2 *27:2 9.15503e-05
3 *27:3 6.47004e-05
4 *27:4 9.97e-05
5 *27:5 9.97e-05

*RES
1 *27:5 *57:Q_N 20
2 *27:4 *27:5 0.865173
3 *27:3 *27:4 20
4 *27:2 *51:A 0.404968
5 *27:2 *27:3 1.06323
*END

*D_NET *28 0.00259089

*CONN
*I *58:Q_N O *C 39.84 35.7 *L 0 *D sg13g2_sdfbbp_1
*I *44:A I *C 29.76 25.62 *L 0.0112 *D sg13g2_inv_4

*CAP
1 *58:Q_N 5.07805e-05
2 *44:A 5.07805e-05
3 *28:2 8.80141e-05
4 *28:3 8.80141e-05
5 *28:4 0.000458553
6 *28:5 0.000464887
7 *28:6 0.000168653
8 *28:7 0.00053289
9 *28:8 0.00016231
10 *28:9 0.000526019

*RES
1 *28:9 *58:Q_N 20
2 *28:7 *28:9 4.44946
3 *28:8 *28:7 20
4 *28:6 *28:8 1.29791
5 *28:5 *28:6 0.247192
6 *28:4 *28:5 3.89343
7 *28:3 *28:4 20
8 *28:2 *28:3 0.494385
9 *44:A *28:2 20
*END

*D_NET *29 0.00127305

*CONN
*I *59:Q_N O *C 23.04 35.7 *L 0 *D sg13g2_sdfbbp_1
*I *42:A I *C 18.24 40.74 *L 0.00563 *D sg13g2_inv_2

*CAP
1 *59:Q_N 5.07806e-05
2 *42:A 5.36974e-05
3 *29:2 9.97988e-05
4 *29:3 0.00010609
5 *29:4 0.000118402
6 *29:5 0.00029088
7 *29:6 0.000108871
8 *29:7 0.000103802
9 *29:8 0.00034073

*RES
1 *29:7 *59:Q_N 20
2 *29:7 *29:8 0.648804
3 *29:5 *29:8 2.22473
4 *29:5 *29:6 0.21637
5 *29:4 *42:A 0.809937
6 *29:3 *29:6 0.741577
7 *29:2 *29:4 1.06323
8 *29:2 *29:3 20
*END

*D_NET *30 0.00012082

*CONN
*I *59:Q O *C 24.48 35.7 *L 0 *D sg13g2_sdfbbp_1
*I *58:SCD I *C 25.635 36.7 *L 0.00198 *D sg13g2_sdfbbp_1

*CAP
1 *59:Q 6.041e-05
2 *58:SCD 6.041e-05

*RES
1 *59:Q *58:SCD 0.91125
*END

*D_NET *31 0.00396597

*CONN
*I *58:Q O *C 41.28 35.7 *L 0 *D sg13g2_sdfbbp_1
*I *57:SCD I *C 13.155 33.02 *L 0.00198 *D sg13g2_sdfbbp_1

*CAP
1 *58:Q 5.07802e-05
2 *57:SCD 6.70065e-06
3 *31:2 3.5838e-05
4 *31:3 6.88276e-05
5 *31:4 0.000121452
6 *31:5 0.000284929
7 *31:6 0.00145528
8 *31:7 0.00023506
9 *31:8 0.00153006
10 *31:9 0.000127289
11 *31:10 4.97296e-05

*RES
1 *31:10 *58:Q 20
2 *31:9 *31:10 0.247192
3 *31:8 *31:9 0.865173
4 *31:6 *31:8 12.1127
5 *31:6 *31:7 0.21637
6 *31:5 *31:7 1.97754
7 *31:4 *31:5 0.648804
8 *31:3 *31:4 0.247192
9 *31:2 *57:SCD 0.101318
10 *31:2 *31:3 20
*END

*D_NET *32 0.00302754

*CONN
*I *57:Q O *C 28.8 34.02 *L 0 *D sg13g2_sdfbbp_1
*I *56:SCD I *C 8.835 29.14 *L 0.00198 *D sg13g2_sdfbbp_1

*CAP
1 *57:Q 5.07823e-05
2 *56:SCD 3.35619e-05
3 *32:2 7.6699e-05
4 *32:3 7.82384e-05
5 *32:4 0.000117561
6 *32:5 0.000145259
7 *32:6 0.000343988
8 *32:7 0.000368923
9 *32:8 0.00037643
10 *32:9 0.000351151
11 *32:10 0.000326578
12 *32:11 0.000351151
13 *32:12 0.000205002
14 *32:13 0.000202222

*RES
1 *32:13 *57:Q 20
2 *32:12 *32:13 1.48315
3 *32:11 *32:12 0.21637
4 *32:9 *32:11 2.71912
5 *32:9 *32:10 0.21637
6 *32:8 *32:10 2.96631
7 *32:7 *32:8 0.648804
8 *32:6 *32:7 2.71912
9 *32:5 *32:6 0.432739
10 *32:4 *32:5 0.741577
11 *32:3 *32:4 20
12 *32:2 *56:SCD 0.506287
13 *32:2 *32:3 0.708618
*END

*D_NET *33 0.00221925

*CONN
*I *56:Q O *C 24.48 28.14 *L 0 *D sg13g2_sdfbbp_1
*I *55:SCD I *C 8.835 25.46 *L 0.00198 *D sg13g2_sdfbbp_1

*CAP
1 *56:Q 5.07793e-05
2 *55:SCD 6.71207e-06
3 *33:2 2.91093e-05
4 *33:3 0.00015365
5 *33:4 0.000320906
6 *33:5 0.000221214
7 *33:6 0.000201718
8 *33:7 0.000357092
9 *33:8 0.00051811
10 *33:9 0.000359961

*RES
1 *33:9 *56:Q 20
2 *33:8 *33:9 2.71912
3 *33:7 *33:8 1.48315
4 *33:6 *33:7 1.48315
5 *33:5 *33:6 0.21637
6 *33:4 *33:5 2.47192
7 *33:3 *33:4 1.08154
8 *33:2 *55:SCD 0.101318
9 *33:2 *33:3 20
*END

*D_NET *34 0.00248456

*CONN
*I *55:Q O *C 24.48 26.46 *L 0 *D sg13g2_sdfbbp_1
*I *54:SCD I *C 8.835 21.58 *L 0.00198 *D sg13g2_sdfbbp_1

*CAP
1 *55:Q 5.07845e-05
2 *54:SCD 3.356e-05
3 *34:2 7.86162e-05
4 *34:3 8.01569e-05
5 *34:4 0.000108542
6 *34:5 0.000136235
7 *34:6 0.000364933
8 *34:7 0.000364933
9 *34:8 0.00064725
10 *34:9 0.000619547

*RES
1 *34:9 *55:Q 20
2 *34:8 *34:9 4.94415
3 *34:7 *34:8 0.432739
4 *34:6 *34:7 2.71912
5 *34:5 *34:6 0.432739
6 *34:4 *34:5 0.741577
7 *34:3 *34:4 20
8 *34:2 *54:SCD 0.506287
9 *34:2 *34:3 0.708618
*END

*D_NET *35 0.00194543

*CONN
*I *54:Q O *C 24.48 20.58 *L 0 *D sg13g2_sdfbbp_1
*I *53:SCD I *C 13.635 17.9 *L 0.00198 *D sg13g2_sdfbbp_1

*CAP
1 *54:Q 5.07793e-05
2 *53:SCD 6.71207e-06
3 *35:3 3.58372e-05
4 *35:4 4.42965e-05
5 *35:5 0.000189314
6 *35:6 0.000196476
7 *35:7 0.000189314
8 *35:8 0.000354633
9 *35:9 0.00051811
10 *35:10 0.000359961

*RES
1 *35:10 *54:Q 20
2 *35:9 *35:10 2.71912
3 *35:8 *35:9 1.48315
4 *35:6 *35:8 1.48315
5 *35:7 *35:6 20
6 *35:3 *53:SCD 0.101318
7 *35:5 *35:7 1.29791
8 *35:4 *35:3 20
9 *35:4 *35:5 20
10 *35:2 *35:4 0.300598
*END

*D_NET *36 0.00245201

*CONN
*I *53:Q O *C 29.28 18.9 *L 0 *D sg13g2_sdfbbp_1
*I *52:SCD I *C 13.635 14.02 *L 0.00198 *D sg13g2_sdfbbp_1

*CAP
1 *53:Q 5.07811e-05
2 *52:SCD 6.71213e-06
3 *36:3 3.58384e-05
4 *36:4 4.42974e-05
5 *36:5 0.000183949
6 *36:6 5.39524e-05
7 *36:7 0.000190822
8 *36:8 0.00044032
9 *36:9 0.000395908
10 *36:10 0.00044032
11 *36:11 0.000395908
12 *36:12 0.000107992
13 *36:13 0.000105211

*RES
1 *36:13 *53:Q 20
2 *36:12 *36:13 0.741577
3 *36:11 *36:12 0.21637
4 *36:9 *36:11 3.46069
5 *36:9 *36:10 0.21637
6 *36:8 *36:10 3.95508
7 *36:6 *36:8 0.21637
8 *36:7 *36:6 20
9 *36:3 *52:SCD 0.101318
10 *36:5 *36:7 1.29791
11 *36:4 *36:3 20
12 *36:4 *36:5 20
13 *36:2 *36:4 0.300598
*END

